LAMMPS (29 Aug 2024 - Development - patch_29Aug2024-566-g224468d946-modified)
# inserting styrene molecules around a periodic CNT

units real

boundary p p p

atom_style full

kspace_style pppm 1.0e-5

pair_style lj/class2/coul/long 8.5

angle_style class2

bond_style class2

dihedral_style class2

improper_style class2

special_bonds lj/coul 0 0 1
pair_modify tail yes mix sixthpower

variable T equal 530

read_data CNT.data   extra/special/per/atom 20
Reading data file ...
  orthogonal box = (-43.564937 -40 -40) to (43.564937 40 40)
  reading atom labelmap ...
  reading bond labelmap ...
  reading angle labelmap ...
  reading dihedral labelmap ...
  reading improper labelmap ...
  reading atoms ...
  1056 atoms
  reading velocities ...
  1056 velocities
  scanning bonds ...
  scanning angles ...
  scanning dihedrals ...
  scanning impropers ...
  orthogonal box = (-43.564937 -40 -40) to (43.564937 40 40)
  reading bonds ...
  1584 bonds
  reading angles ...
  3168 angles
  reading dihedrals ...
  6336 dihedrals
  reading impropers ...
  1056 impropers
Finding 1-2 1-3 1-4 neighbors ...
     3 = max # of 1-2 neighbors
     6 = max # of 1-3 neighbors
    29 = max # of special neighbors

#write_data CNT.data

molecule styrene styrene.molecule_template
Read molecule template styrene:
styrene_molecule
  1 molecules
  0 fragments
  16 atoms with max type 4
  16 bonds with max type 11
  24 angles with max type 19
  32 dihedrals with max type 21
  8 impropers with max type 9

create_atoms 0 random 1000 8305 NULL overlap 2.75   maxtry 500 mol styrene 7687
Created 15984 atoms

thermo_style custom step density temp etotal press pxx pyy pzz lx ly lz

minimize 1.0e-4 1.0e-6 100 1000

CITE-CITE-CITE-CITE-CITE-CITE-CITE-CITE-CITE-CITE-CITE-CITE-CITE

Your simulation uses code contributions which should be cited:

- Type Label Framework: https://doi.org/10.1021/acs.jpcb.3c08419

@Article{Gissinger24,
 author = {Jacob R. Gissinger, Ilia Nikiforov, Yaser Afshar, Brendon Waters, Moon-ki Choi, Daniel S. Karls, Alexander Stukowski, Wonpil Im, Hendrik Heinz, Axel Kohlmeyer, and Ellad B. Tadmor},
 title = {Type Label Framework for Bonded Force Fields in LAMMPS},
 journal = {J. Phys. Chem. B},
 year =    2024,
 volume =  128,
 number =  13,
 pages =   {3282--3297}
}

CITE-CITE-CITE-CITE-CITE-CITE-CITE-CITE-CITE-CITE-CITE-CITE-CITE

PPPM initialization ...
  G vector (1/distance) = 0.27506117
  grid = 36 36 36
  stencil order = 5
  estimated absolute RMS force accuracy = 0.0034350933
  estimated relative force accuracy = 1.0344682e-05
  3d grid and FFT values/proc = 4508 2592
Generated 21 of 21 mixed pair_coeff terms from sixthpower/sixthpower mixing rule
Step        Density          Temp          TotEng         Press           Pxx            Pyy            Pzz             Lx             Ly             Lz
0   0.34761281     17.644269      371476.17      4142.167       6150.893       6829.2787     -553.67091      87.129874      80             80
Loop time of 0.541063 on 32 procs for 100 steps with 17040 atoms

Minimization stats:
  Stopping criterion = max iterations
  Energy initial, next-to-last, final =
  Force two-norm initial, final = 29259.13 197.17728
  Force max component initial, final = 660.08646 15.936135
  Final line search alpha, max atom move = 0.0019101557 0.030440499
  Iterations, force evaluations = 100 187

velocity all create 300.0 4928459 rot yes dist gaussian loop local

thermo_style custom step density temp etotal press pxx pyy pzz lx ly lz

fix 1 all nvt temp 300 300 100 #y 1 1 3000 z 1 1 3000

fix 2 all deform 1 y erate -0.0001 z erate -0.0001

variable density equal density

fix 3 all halt 10 v_density > 0.9 error continue

thermo 500

dump myDump all xyz 100 test.xyz

run 9000
PPPM initialization ...
  G vector (1/distance) = 0.27506117
  grid = 36 36 36
  stencil order = 5
  estimated absolute RMS force accuracy = 0.0034350933
  estimated relative force accuracy = 1.0344682e-05
  3d grid and FFT values/proc = 4508 2592
Generated 21 of 21 mixed pair_coeff terms from sixthpower/sixthpower mixing rule
Step        Density          Temp          TotEng         Press           Pxx            Pyy            Pzz             Lx             Ly             Lz
100   0.34761281     300            269810.18     -6414.0378      83.373986     -9638.5794     -9686.9081      87.129874      80             80
Averages over the last 4 of 8 rows, steps 2000 to 3500:
Density Temp TotEng Press Pxx Pyy Pzz Lx Ly Lz
0.654805 300.32 220908 -15375.7 -12378.7 -16900.8 -16847.5 87.1299 58.8 58.8
Fix halt condition for fix-id 3 met on step 3890 with value 0.9013896603771433 (../fix_halt.cpp:240)
Loop time of 14.4437 on 32 procs for 3790 steps with 17040 atoms

unfix 2
unfix 3

run 10000
PPPM initialization ...
  G vector (1/distance) = 0.28757057
  grid = 40 25 25
  stencil order = 5
  estimated absolute RMS force accuracy = 0.0033264521
  estimated relative force accuracy = 1.0017512e-05
  3d grid and FFT values/proc = 3705 1120
Generated 21 of 21 mixed pair_coeff terms from sixthpower/sixthpower mixing rule
Step        Density          Temp          TotEng         Press           Pxx            Pyy            Pzz             Lx             Ly             Lz
3890   0.90138966     298.86743      193196.88     -20669.223     -21815.115     -20048.038     -20144.514      87.129874      49.68          49.68
Averages over the last 11 of 22 rows, steps 9000 to 13890:
Density Temp TotEng Press Pxx Pyy Pzz Lx Ly Lz
0.90139 299.669 193346 -23591 -24562 -22987.8 -23223.2 87.1299 49.68 49.68
Loop time of 36.3297 on 32 procs for 10000 steps with 17040 atoms

#unfix 1

#fix 1 all npt temp 300 300 100 y 1 1 3000 z 1 1 3000

#run 10000

write_data composite.data
System init for write_data ...
PPPM initialization ...
  G vector (1/distance) = 0.28757057
  grid = 40 25 25
  stencil order = 5
  estimated absolute RMS force accuracy = 0.0033264521
  estimated relative force accuracy = 1.0017512e-05
  3d grid and FFT values/proc = 3705 1120
Generated 21 of 21 mixed pair_coeff terms from sixthpower/sixthpower mixing rule
