LAMMPS (29 Aug 2024 - Development - patch_29Aug2024-566-g224468d946-modified)
# 20 styrene molecules
# three reactions defined

units real

boundary p p p

atom_style full

kspace_style pppm 1.0e-4

pair_style lj/class2/coul/long 8.5

angle_style class2

bond_style class2

dihedral_style class2

improper_style class2

special_bonds lj/coul 0 0 1
pair_modify tail yes mix sixthpower

variable T equal 530

read_data composite.data    extra/bond/per/atom 5   extra/angle/per/atom 15   extra/dihedral/per/atom 15   extra/improper/per/atom 25   extra/special/per/atom 25
Reading data file ...
  orthogonal box = (-43.564937 -24.84 -24.84) to (43.564937 24.84 24.84)
  reading atom labelmap ...
  reading bond labelmap ...
  reading angle labelmap ...
  reading dihedral labelmap ...
  reading improper labelmap ...
  reading atoms ...
  17040 atoms
  reading velocities ...
  17040 velocities
  scanning bonds ...
  scanning angles ...
  scanning dihedrals ...
  scanning impropers ...
  orthogonal box = (-43.564937 -24.84 -24.84) to (43.564937 24.84 24.84)
  reading bonds ...
  17568 bonds
  reading angles ...
  27144 angles
  reading dihedrals ...
  38304 dihedrals
  reading impropers ...
  9048 impropers
Finding 1-2 1-3 1-4 neighbors ...
     3 = max # of 1-2 neighbors
     6 = max # of 1-3 neighbors
    34 = max # of special neighbors

molecule mol1 2styrene_unreacted.molecule_template
Read molecule template mol1:
2styrene_unreacted
  1 molecules
  0 fragments
  32 atoms with max type 4
  32 bonds with max type 11
  48 angles with max type 19
  64 dihedrals with max type 21
  16 impropers with max type 9
molecule mol2 2styrene_reacted.molecule_template
Read molecule template mol2:
2styrene_reacted
  1 molecules
  0 fragments
  32 atoms with max type 6
  33 bonds with max type 13
  54 angles with max type 22
  79 dihedrals with max type 19
  14 impropers with max type 8
molecule mol3 chain_plus_styrene_unreacted.molecule_template
Read molecule template mol3:
chain_plus_styrene_unreacted
  1 molecules
  0 fragments
  46 atoms with max type 6
  47 bonds with max type 13
  75 angles with max type 22
  105 dihedrals with max type 21
  21 impropers with max type 9
molecule mol4 chain_plus_styrene_reacted.molecule_template
Read molecule template mol4:
chain_plus_styrene_reacted
  1 molecules
  0 fragments
  46 atoms with max type 6
  48 bonds with max type 13
  81 angles with max type 22
  121 dihedrals with max type 19
  19 impropers with max type 8
molecule mol5 chain_chain_unreacted.molecule_template
Read molecule template mol5:
chain_chain_unreacted
  1 molecules
  0 fragments
  50 atoms with max type 6
  51 bonds with max type 13
  84 angles with max type 22
  118 dihedrals with max type 19
  20 impropers with max type 8
molecule mol6 chain_chain_reacted.molecule_template
Read molecule template mol6:
chain_chain_reacted
  1 molecules
  0 fragments
  50 atoms with max type 6
  52 bonds with max type 13
  90 angles with max type 22
  135 dihedrals with max type 19
  18 impropers with max type 3

thermo 100

 dump 1 all xyz 5 test_vis.xyz
 dump_modify 1 types labels

fix rxn1 all bond/react stabilization yes statted_grp .03  react rxn1 all 1 0 3.0 mol1 mol2 2styrene_map stabilize_steps 100  react rxn2 all 1 0 3.0 mol3 mol4 chain_plus_styrene_map stabilize_steps 100  react rxn3 all 1 0 5.0 mol5 mol6 chain_chain_map stabilize_steps 100
dynamic group bond_react_MASTER_group defined
dynamic group statted_grp_REACT defined

fix 1 statted_grp_REACT nvt temp $T $T 100
fix 1 statted_grp_REACT nvt temp 530 $T 100
fix 1 statted_grp_REACT nvt temp 530 530 100

fix 4 bond_react_MASTER_group temp/rescale 1 $T $T 1 1
fix 4 bond_react_MASTER_group temp/rescale 1 530 $T 1 1
fix 4 bond_react_MASTER_group temp/rescale 1 530 530 1 1

thermo_style custom step temp press density f_rxn1[*]

dump mydmp all image 1000 dump.mixing.*.ppm   type type shiny 0.1 box no 0.01   view 90 0 zoom 3 fsaa yes bond atom 0.5
dump_modify mydmp backcolor white   acolor cp gray acolor c=1 gray   acolor c= gray acolor c1 gray   acolor c2 gray acolor c3 gray   adiam cp 0.3 adiam c=1 0.3   adiam c= 0.3 adiam c1 0.3   adiam c2 0.3 adiam c3 0.3   acolor hc white adiam hc 0.15

run 10000

CITE-CITE-CITE-CITE-CITE-CITE-CITE-CITE-CITE-CITE-CITE-CITE-CITE

Your simulation uses code contributions which should be cited:

- Type Label Framework: https://doi.org/10.1021/acs.jpcb.3c08419

@Article{Gissinger24,
 author = {Jacob R. Gissinger, Ilia Nikiforov, Yaser Afshar, Brendon Waters, Moon-ki Choi, Daniel S. Karls, Alexander Stukowski, Wonpil Im, Hendrik Heinz, Axel Kohlmeyer, and Ellad B. Tadmor},
 title = {Type Label Framework for Bonded Force Fields in LAMMPS},
 journal = {J. Phys. Chem. B},
 year =    2024,
 volume =  128,
 number =  13,
 pages =   {3282--3297}
}

- fix bond/react: reacter.org doi:10.1016/j.polymer.2017.09.038, doi:10.1021/acs.macromol.0c02012, doi:10.1016/j.cpc.2024.109287

@Article{Gissinger17,
 author = {J. R. Gissinger and B. D. Jensen and K. E. Wise},
 title = {Modeling Chemical Reactions in Classical Molecular Dynamics Simulations},
 journal = {Polymer},
 year =    2017,
 volume =  128,
 pages =   {211--217}
}

@Article{Gissinger20,
 author = {J. R. Gissinger, B. D. Jensen, K. E. Wise},
 title = {{REACTER}: A Heuristic Method for Reactive Molecular Dynamics},
 journal = {Macromolecules},
 year =    2020,
 volume =  53,
 number =  22,
 pages =   {9953--9961}
}

@Article{Gissinger24,
 author = {J. R. Gissinger, B. D. Jensen, K. E. Wise},
 title = {Molecular Modeling of Reactive Systems with REACTER},
 journal = {Computer Physics Communications},
 year =    2024,
 volume =  304,
 number =  109287
}

CITE-CITE-CITE-CITE-CITE-CITE-CITE-CITE-CITE-CITE-CITE-CITE-CITE

PPPM initialization ...
  G vector (1/distance) = 0.23127035
  grid = 24 15 15
  stencil order = 5
  estimated absolute RMS force accuracy = 0.027453738
  estimated relative force accuracy = 8.2676115e-05
  3d grid and FFT values/proc = 1430 192
Generated 21 of 21 mixed pair_coeff terms from sixthpower/sixthpower mixing rule
Step          Temp          Press         Density       f_rxn1[1]      f_rxn1[2]      f_rxn1[3]
0   298.3984      -24144.161      0.90138966     0              0              0
Averages over the last 51 of 101 rows, steps 5000 to 10000:
Temp Press Density f_rxn1[1] f_rxn1[2] f_rxn1[3]
529.903 -31920.4 0.90139 353.843 59.2549 228.412
Loop time of 71.0111 on 32 procs for 10000 steps with 17040 atoms

write_restart restart_longrun
System init for write_restart ...
PPPM initialization ...
  G vector (1/distance) = 0.23127035
  grid = 24 15 15
  stencil order = 5
  estimated absolute RMS force accuracy = 0.027453738
  estimated relative force accuracy = 8.2676115e-05
  3d grid and FFT values/proc = 1430 192
Generated 21 of 21 mixed pair_coeff terms from sixthpower/sixthpower mixing rule
write_data restart_longrun.data nofix
System init for write_data ...
PPPM initialization ...
  G vector (1/distance) = 0.23127035
  grid = 24 15 15
  stencil order = 5
  estimated absolute RMS force accuracy = 0.027453738
  estimated relative force accuracy = 8.2676115e-05
  3d grid and FFT values/proc = 1430 192
Generated 21 of 21 mixed pair_coeff terms from sixthpower/sixthpower mixing rule
