LAMMPS (29 Aug 2024 - Development - patch_29Aug2024-1065-gcf05700897)
# inserting styrene molecules around a periodic CNT

units real
boundary p p p
atom_style full

kspace_style pppm 1.0e-5
pair_style lj/class2/coul/long 8.5
angle_style class2
bond_style class2
dihedral_style class2
improper_style class2

special_bonds lj/coul 0 0 1
pair_modify tail yes mix sixthpower

read_data tiny_CNT.data group CNT   extra/special/per/atom 20
Reading data file ...
  orthogonal box = (-2.3164529 -60 -60) to (13.21044 60 60)
  reading atom labelmap ...
  reading bond labelmap ...
  reading angle labelmap ...
  reading dihedral labelmap ...
  reading improper labelmap ...
  reading atoms ...
  192 atoms
  scanning bonds ...
  scanning angles ...
  scanning dihedrals ...
  scanning impropers ...
  orthogonal box = (-2.3164529 -60 -60) to (13.21044 60 60)
  reading bonds ...
  288 bonds
  reading angles ...
  576 angles
  reading dihedrals ...
  1152 dihedrals
  reading impropers ...
  192 impropers
Finding 1-2 1-3 1-4 neighbors ...
     3 = max # of 1-2 neighbors
     6 = max # of 1-3 neighbors
    29 = max # of special neighbors

molecule styrene styrene.molecule_template
Read molecule template styrene:
styrene_molecule
  1 molecules
  0 fragments
  16 atoms with max type 4
  16 bonds with max type 11
  24 angles with max type 19
  32 dihedrals with max type 21
  8 impropers with max type 9

create_atoms 0 random 200 8305 NULL overlap 2.75   maxtry 500 mol styrene 7687
Created 3200 atoms

minimize 1.0e-4 1.0e-6 100 1000

CITE-CITE-CITE-CITE-CITE-CITE-CITE-CITE-CITE-CITE-CITE-CITE-CITE

Your simulation uses code contributions which should be cited:

- Type Label Framework: https://doi.org/10.1021/acs.jpcb.3c08419

@Article{Gissinger24,
 author = {Jacob R. Gissinger, Ilia Nikiforov, Yaser Afshar, Brendon Waters, Moon-ki Choi, Daniel S. Karls, Alexander Stukowski, Wonpil Im, Hendrik Heinz, Axel Kohlmeyer, and Ellad B. Tadmor},
 title = {Type Label Framework for Bonded Force Fields in LAMMPS},
 journal = {J. Phys. Chem. B},
 year =    2024,
 volume =  128,
 number =  13,
 pages =   {3282--3297}
}

CITE-CITE-CITE-CITE-CITE-CITE-CITE-CITE-CITE-CITE-CITE-CITE-CITE

PPPM initialization ...
  G vector (1/distance) = 0.26305894
  grid = 9 40 40
  stencil order = 5
  estimated absolute RMS force accuracy = 0.0032149548
  estimated relative force accuracy = 9.6817409e-06
  3d grid and FFT values/proc = 32400 14400
Generated 21 of 21 mixed pair_coeff terms from sixthpower/sixthpower mixing rule
Step          Temp          E_pair         E_mol          TotEng         Press
0   0              2481.7682      33059.224      35540.992     -460.38193
Loop time of 1.87714 on 1 procs for 90 steps with 3392 atoms

Minimization stats:
  Stopping criterion = energy tolerance
  Energy initial, next-to-last, final =
  Force two-norm initial, final = 13128.037 37.531878
  Force max component initial, final = 659.35639 4.856523
  Final line search alpha, max atom move = 0.010159839 0.049341491
  Iterations, force evaluations = 90 179

velocity all create 300.0 4928459 dist gaussian   rot yes loop local
fix 1 all nvt temp 300 300 100

fix 2 all deform 1 y erate -0.0001   z erate -0.0001
variable rho equal density
fix 3 all halt 10 v_rho > 0.9 error continue

thermo 500
thermo_style custom step temp pe etotal press   density

run 9000
PPPM initialization ...
  G vector (1/distance) = 0.26305894
  grid = 9 40 40
  stencil order = 5
  estimated absolute RMS force accuracy = 0.0032149548
  estimated relative force accuracy = 9.6817409e-06
  3d grid and FFT values/proc = 32400 14400
Generated 21 of 21 mixed pair_coeff terms from sixthpower/sixthpower mixing rule
Step          Temp          PotEng         TotEng         Press         Density
90   300            12001.526      15033.904     -1586.5767      0.17183267
Averages over the last 6 of 12 rows, steps 3000 to 5500:
Temp PotEng TotEng Press Density
298.627 13451.5 16470 -5979.33 0.538259
Fix halt condition for fix-id 3 met on step 5730 with value 0.9039257417441504 (../fix_halt.cpp:240)
Loop time of 80.0789 on 1 procs for 5640 steps with 3392 atoms

unfix 2
unfix 3
reset_timestep 0

dump mydmp all image 1000 dump.mixing.*.ppm   type type shiny 0.1 box no 0.01   view 90 0 zoom 1.5 fsaa yes bond atom 0.5
dump_modify mydmp backcolor white   acolor cp gray acolor c=1 gray   acolor c= gray acolor c1 gray   acolor c2 gray acolor c3 gray   adiam cp 0.3 adiam c=1 0.3   adiam c= 0.3 adiam c1 0.3   adiam c2 0.3 adiam c3 0.3   acolor hc white adiam hc 0.15

run 9999
PPPM initialization ...
  G vector (1/distance) = 0.28904869
  grid = 9 24 24
  stencil order = 5
  estimated absolute RMS force accuracy = 0.0026123692
  estimated relative force accuracy = 7.8670722e-06
  3d grid and FFT values/proc = 13456 5184
Generated 21 of 21 mixed pair_coeff terms from sixthpower/sixthpower mixing rule
Step          Temp          PotEng         TotEng         Press         Density
0   305.5543       12804.116      15892.637     -6333.1499      0.90392574
Averages over the last 11 of 21 rows, steps 5000 to 9999:
Temp PotEng TotEng Press Density
300.639 13068.8 16107.7 -10230 0.903926
Loop time of 180.4 on 1 procs for 9999 steps with 3392 atoms

fix centralize CNT recenter 0 0 0 units box shift all
run 1
PPPM initialization ...
  G vector (1/distance) = 0.28904869
  grid = 9 24 24
  stencil order = 5
  estimated absolute RMS force accuracy = 0.0026123692
  estimated relative force accuracy = 7.8670722e-06
  3d grid and FFT values/proc = 13456 5184
Generated 21 of 21 mixed pair_coeff terms from sixthpower/sixthpower mixing rule
Step          Temp          PotEng         TotEng         Press         Density
9999   303.62968      13115.072      16184.139     -9562.1865      0.90392574
Loop time of 0.230998 on 1 procs for 1 steps with 3392 atoms

write_data CNT-PS-mix.data
System init for write_data ...
PPPM initialization ...
  G vector (1/distance) = 0.28904869
  grid = 9 24 24
  stencil order = 5
  estimated absolute RMS force accuracy = 0.0026123692
  estimated relative force accuracy = 7.8670722e-06
  3d grid and FFT values/proc = 13456 5184
Generated 21 of 21 mixed pair_coeff terms from sixthpower/sixthpower mixing rule
